6
b3lyp/tz opt
C        0.0938990000      0.4054520000     -0.0000020000                 
O       -1.1591470000     -0.0851610000      0.0000010000                 
H        1.9675710000      0.1969100000      0.0000040000                 
H       -1.0826510000     -1.0513600000      0.0000000000                 
H        0.0706980000      1.4948530000      0.0000030000                 
N        1.1077370000     -0.3416900000      0.0000000000                 
