6
Optimized b3lyp/tz
C        0.1619440000      0.3852000000      0.0000010000                 
O        1.1942240000     -0.2450250000     -0.0000140000                 
H       -1.9029980000      0.4198940000     -0.0003170000                 
H       -1.1842800000     -1.1586610000     -0.0002170000                 
H        0.1350190000      1.4898740000     -0.0000280000                 
N       -1.0818860000     -0.1574430000      0.0000960000                 
